Version 4
SHEET 1 880 680
WIRE 320 64 192 64
WIRE 464 64 416 64
WIRE 240 272 192 272
WIRE 384 272 336 272
FLAG 144 32 VDD
FLAG 368 32 VDD
FLAG 512 32 VDD
FLAG 560 64 A
FLAG 96 64 A
FLAG -32 -48 VDD
FLAG -32 32 0
FLAG 144 240 VDD2
FLAG 288 240 VDD2
FLAG 432 240 VDD2
FLAG 480 272 B
FLAG 96 272 B
FLAG -32 176 VDD2
FLAG -32 256 0
SYMBOL voltage -32 -64 R0
WINDOW 123 0 0 Left 0
WINDOW 39 0 0 Left 0
SYMATTR InstName V1
SYMATTR Value PWL(0 0 10u 5)
SYMBOL voltage -32 160 R0
WINDOW 123 0 0 Left 0
WINDOW 39 0 0 Left 0
SYMATTR InstName V2
SYMATTR Value PWL(0 0 20u 3)
SYMBOL INVERTER_2 144 64 R0
SYMATTR InstName X1
SYMBOL INVERTER_2 368 64 R0
SYMATTR InstName X2
SYMBOL INVERTER_2 512 64 R0
SYMATTR InstName X3
SYMBOL INVERTER_2 432 272 R0
SYMATTR InstName X4
SYMBOL INVERTER_2 288 272 R0
SYMATTR InstName X5
SYMBOL INVERTER_2 144 272 R0
SYMATTR InstName X6
TEXT -72 -144 Left 2 !.tran 0 500u 0 0.01u
